@<TRIPOS>MOLECULE
BMI_original_reordered
 49 53 0 0 0
SMALL
GASTEIGER
****
Structure written by MMmdl.
@<TRIPOS>ATOM
      1 C           3.5880   -3.8720   18.7280 C.ar    1  UNL1        0.2612
      2 O           3.5640   -4.6860   17.8050 O.2     1  UNL1       -0.2671
      3 N           4.4390   -3.6970   22.4420 N.pl3   1  UNL1       -0.3375
      4 H           3.9210   -4.4350   22.9490 H       1  UNL1        0.1465
      5 N           3.2300   -2.5700   18.5530 N.ar    1  UNL1       -0.3284
      6 H           2.9460   -2.3350   17.6130 H       1  UNL1        0.1683
      7 C           4.0200   -3.3010   21.1000 C.ar    1  UNL1        0.0448
      8 C           3.6210   -1.9260   20.8290 C.ar    1  UNL1       -0.0239
      9 H           3.6240   -1.1710   21.6060 H       1  UNL1        0.0651
     10 C           3.2470   -1.6400   19.5650 C.ar    1  UNL1        0.0067
     11 H           2.9280   -0.6600   19.2300 H       1  UNL1        0.0808
     12 C           5.5900   -3.0520   23.0670 C.3     1  UNL1        0.0515
     13 H           5.4570   -3.0400   24.1490 H       1  UNL1        0.0526
     14 H           5.6770   -2.0290   22.7010 H       1  UNL1        0.0526
     15 C           8.7300   -4.2120   21.2890 C.ar    1  UNL1       -0.0586
     16 H           9.3150   -3.9760   20.4100 H       1  UNL1        0.0619
     17 C           7.5740   -3.4910   21.5870 C.ar    1  UNL1       -0.0388
     18 H           7.2510   -2.6860   20.9410 H       1  UNL1        0.0636
     19 C           9.1190   -5.2420   22.1430 C.ar    1  UNL1       -0.0436
     20 H          10.0090   -5.8220   21.9430 H       1  UNL1        0.0633
     21 C           6.8370   -3.8130   22.7250 C.ar    1  UNL1        0.0582
     22 N           7.2040   -4.8140   23.5650 N.ar    1  UNL1       -0.2583
     23 C           8.3320   -5.5080   23.2630 C.ar    1  UNL1        0.0279
     24 H           8.6110   -6.3040   23.9440 H       1  UNL1        0.0829
     25 C           3.9980   -4.2070   20.0900 C.ar    1  UNL1        0.1022
     26 C           7.2440  -10.8060   23.2540 C.ar    1  UNL1        0.0293
     27 H           7.8800   -9.9350   23.3580 H       1  UNL1        0.0829
     28 C           5.6950   -9.7500   21.5420 C.ar    1  UNL1        0.0498
     29 C           5.5100   -8.4690   22.0690 C.ar    1  UNL1       -0.0103
     30 H           5.7110   -8.2640   23.1100 H       1  UNL1        0.0660
     31 N           6.1650  -10.8260   22.4090 N.ar    1  UNL1       -0.3058
     32 C           5.6080  -12.0700   22.5380 C.ar    1  UNL1        0.1004
     33 H           4.7270  -12.3400   21.9640 H       1  UNL1        0.1032
     34 N           6.2600  -12.8180   23.3980 N.ar    1  UNL1       -0.2437
     35 C           7.2550  -12.0630   23.8400 C.ar    1  UNL1        0.0458
     36 H           7.9730  -12.4180   24.5710 H       1  UNL1        0.0845
     37 C           5.0590   -7.4530   21.2190 C.ar    1  UNL1        0.0917
     38 N           4.3840   -6.5480   19.3310 N.ar    1  UNL1       -0.3375
     39 H           4.1020   -6.3260   18.3820 H       1  UNL1        0.1674
     40 C           4.4060   -5.6270   20.3510 C.ar    1  UNL1        0.1463
     41 N           4.8030   -6.1320   21.4940 N.ar    1  UNL1       -0.2274
     42 C           4.8030   -7.7490   19.8560 C.ar    1  UNL1        0.0695
     43 C           4.9850   -9.0260   19.3230 C.ar    1  UNL1       -0.0231
     44 C           5.4370  -10.0180   20.1980 C.ar    1  UNL1       -0.0328
     45 H           5.5910  -11.0220   19.8250 H       1  UNL1        0.0641
     46 C           4.7110   -9.3300   17.8800 C.3     1  UNL1       -0.0376
     47 H           4.9200  -10.3810   17.6840 H       1  UNL1        0.0278
     48 H           3.6660   -9.1190   17.6560 H       1  UNL1        0.0278
     49 H           5.3500   -8.7090   17.2510 H       1  UNL1        0.0278
@<TRIPOS>BOND
     1     1     2    2
     2     1     5   ar
     3     1    25   ar
     4     3     7    1
     5     3    12    1
     6     3     4    1
     7     5    10   ar
     8     5     6    1
     9     7     8   ar
    10     7    25   ar
    11     8    10   ar
    12     8     9    1
    13    10    11    1
    14    12    21    1
    15    12    13    1
    16    12    14    1
    17    15    19   ar
    18    15    17   ar
    19    15    16    1
    20    17    21   ar
    21    17    18    1
    22    19    23   ar
    23    19    20    1
    24    21    22   ar
    25    22    23   ar
    26    23    24    1
    27    25    40    1
    28    26    31   ar
    29    26    35   ar
    30    26    27    1
    31    28    29   ar
    32    28    31    1
    33    28    44   ar
    34    29    37   ar
    35    29    30    1
    36    31    32   ar
    37    32    34   ar
    38    32    33    1
    39    34    35   ar
    40    35    36    1
    41    37    41   ar
    42    37    42   ar
    43    38    40   ar
    44    38    42   ar
    45    38    39    1
    46    40    41   ar
    47    42    43   ar
    48    43    44   ar
    49    43    46    1
    50    44    45    1
    51    46    47    1
    52    46    48    1
    53    46    49    1
