@<TRIPOS>MOLECULE
*****
 18 19 0 0 0
SMALL
GASTEIGER

@<TRIPOS>ATOM
      1 C           5.5474   -9.8864   21.4669 C.ar  301  BMI301301301301301301301   -0.0591
      2 C           4.9792   -9.2310   20.3590 C.ar  301  BMI301301301301301301301   -0.0297
      3 C           4.7106   -7.8718   20.4775 C.ar  301  BMI301301301301301301301    0.1402
      4 N           4.6155   -5.8949   21.4348 N.pl3 301  BMI301301301301301301301   -0.1674
      5 C           4.1287   -5.8446   20.1728 C.2   301  BMI301301301301301301301    0.2599
      6 N           4.1747   -7.0530   19.5555 N.2   301  BMI301301301301301301301   -0.1880
      7 C           4.9790   -7.1742   21.6171 C.ar  301  BMI301301301301301301301    0.2293
      8 C           5.5447   -7.7881   22.7440 C.ar  301  BMI301301301301301301301    0.0223
      9 C           5.8294   -9.1700   22.6545 C.ar  301  BMI301301301301301301301   -0.0525
     10 C           5.8483   -7.0383   24.0090 C.3   301  BMI301301301301301301301   -0.0334
     11 H           5.5773   -5.9669   23.9442 H       1  LIG1111111    0.0280
     12 H           6.9345   -7.1055   24.2275 H       1  LIG1111111    0.0280
     13 H           5.2796   -7.4865   24.8504 H       1  LIG1111111    0.0280
     14 H           6.2667   -9.6899   23.4979 H       1  LIG1111111    0.0622
     15 H           5.7698  -10.9442   21.4104 H       1  LIG1111111    0.0618
     16 H           4.7589   -9.7679   19.4453 H       1  LIG1111111    0.0641
     17 H           4.6874   -5.1540   22.0792 H       1  LIG1        0.4452
     18 H           3.7644   -4.9863   19.7306 H       1  LIG1        0.1611
@<TRIPOS>BOND
     1     1     2   ar
     2     1     9   ar
     3     1    15    1
     4     2     3   ar
     5     2    16    1
     6     3     6    1
     7     3     7   ar
     8     4     5    1
     9     4     7    1
    10     5     6    2
    11     7     8   ar
    12     8     9   ar
    13     8    10    1
    14     9    14    1
    15    10    11    1
    16    10    12    1
    17    10    13    1
    18     4    17    1
    19     5    18    1
