2OJ9_ligand
                    3D
 Structure written by MMmdl.
 13 13  0  0  1  0            999 V2000
    3.1589   -4.5281   18.5158 C   0  0  0  0  0  0
    2.7681   -5.6959   17.8929 O   0  0  0  0  0  0
    2.8976   -3.3008   17.9182 C   0  0  0  0  0  0
    4.2074   -3.4032   20.3678 C   0  0  0  0  0  0
    3.9461   -2.1759   19.7703 C   0  0  0  0  0  0
    3.2912   -2.1247   18.5455 C   0  0  0  0  0  0
    3.8138   -4.5793   19.7405 C   0  0  0  0  0  0
    2.9933   -6.5349   18.3883 H   0  0  0  0  0  0
    2.3877   -3.2609   16.9647 H   0  0  0  0  0  0
    4.7173   -3.4431   21.3213 H   0  0  0  0  0  0
    4.2525   -1.2602   20.2586 H   0  0  0  0  0  0
    3.0877   -1.1692   18.0803 H   0  0  0  0  0  0
    4.0173   -5.5349   20.2057 H   0  0  0  0  0  0
  1  2  1  0  0  0
  1  3  1  0  0  0
  1  7  2  0  0  0
  2  8  1  0  0  0
  3  6  2  0  0  0
  3  9  1  0  0  0
  4  5  2  0  0  0
  4  7  1  0  0  0
  4 10  1  0  0  0
  5  6  1  0  0  0
  5 11  1  0  0  0
  6 12  1  0  0  0
  7 13  1  0  0  0
M  END
> <s_m_entry_id>
2

> <s_m_entry_name>
2oj9.1_ligand

> <s_pdb_PDB_TITLE>
STRUCTURE OF IGF-1R KINASE DOMAIN COMPLEXED WITH A BENZIMIDAZOLE INHIBITOR

> <s_pdb_PDB_ID>
2OJ9

> <r_pdb_PDB_CRYST1_a>
57.271

> <r_pdb_PDB_CRYST1_b>
44.289

> <r_pdb_PDB_CRYST1_c>
65.744

> <r_pdb_PDB_CRYST1_alpha>
90

> <r_pdb_PDB_CRYST1_beta>
99.05

> <r_pdb_PDB_CRYST1_gamma>
90

> <s_pdb_PDB_CRYST1_Space_Group>
P 1 21 1

> <i_pdb_PDB_CRYST1_z>
2

> <s_pdb_PDB_CLASSIFICATION>
TRANSFERASE

> <s_pdb_PDB_DEPOSITION_DATE>
12-JAN-07

> <s_pdb_PDB_format_version>
3.15

> <r_pdb_PDB_R>
0.214

> <r_pdb_PDB_Rfree>
0.276

> <r_pdb_PDB_RESOLUTION>
2

> <s_pdb_PDB_EXPDTA>
X-RAY DIFFRACTION

> <r_pdb_PDB_EXPDTA_TEMPERATURE>
100

> <s_pdb_PDB_REMARK_350_Biomolecule_1_Transform_1_Chains>
A

> <s_pdb_PDB_REMARK_350_Biomolecule_1_Transform_1_Matrix_1>
1.000000 0.000000 0.000000   0.000000;0.000000 1.000000 0.000000   0.000000;0.000000 0.000000 1.000000   0.000000

> <s_m_Source_Path>
/home/mwieder/Work/Software/schrodinger2019-2

> <s_m_Source_File>
2oj9.pdb

> <i_m_Source_File_Index>
1

> <s_m_subgroup_title>
2OJ9_split_by_structure

> <s_m_subgroupid>
2OJ9_split_by_structure

> <b_m_subgroup_collapsed>
0

$$$$
