@<TRIPOS>MOLECULE
2OJ9_ligand
 13 13 0 0 0
SMALL
GASTEIGER
****
Structure written by MMmdl.
@<TRIPOS>ATOM
      1 C           3.1589   -4.5281   18.5158 C.ar    1  UNL1        0.1169
      2 O           2.7681   -5.6959   17.8929 O.3     1  UNL1       -0.5068
      3 C           2.8976   -3.3008   17.9182 C.ar    1  UNL1       -0.0202
      4 C           4.2074   -3.4032   20.3678 C.ar    1  UNL1       -0.0583
      5 C           3.9461   -2.1759   19.7703 C.ar    1  UNL1       -0.0615
      6 C           3.2912   -2.1247   18.5455 C.ar    1  UNL1       -0.0583
      7 C           3.8138   -4.5793   19.7405 C.ar    1  UNL1       -0.0202
      8 H           2.9933   -6.5349   18.3883 H       1  UNL1        0.2921
      9 H           2.3877   -3.2609   16.9647 H       1  UNL1        0.0654
     10 H           4.7173   -3.4431   21.3213 H       1  UNL1        0.0619
     11 H           4.2525   -1.2602   20.2586 H       1  UNL1        0.0618
     12 H           3.0877   -1.1692   18.0803 H       1  UNL1        0.0619
     13 H           4.0173   -5.5349   20.2057 H       1  UNL1        0.0654
@<TRIPOS>BOND
     1     1     2    1
     2     1     3   ar
     3     1     7   ar
     4     2     8    1
     5     3     6   ar
     6     3     9    1
     7     4     5   ar
     8     4     7   ar
     9     4    10    1
    10     5     6   ar
    11     5    11    1
    12     6    12    1
    13     7    13    1
