@<TRIPOS>MOLECULE
BMI
 49 53 0 0 0
SMALL
GASTEIGER

@<TRIPOS>ATOM
      1 C           3.1460   -4.5250   18.4410 C.ar    1  LIG1        0.2612
      2 O           2.7560   -5.6360   17.8830 O.2     1  LIG1       -0.2671
      3 N           4.9310   -3.2670   21.6820 N.pl3   1  LIG1       -0.3375
      4 N           2.8980   -3.3310   17.9320 N.ar    1  LIG1       -0.3284
      5 C           4.2240   -3.3630   20.4270 C.ar    1  LIG1        0.0448
      6 C           3.9510   -2.1660   19.7420 C.ar    1  LIG1       -0.0239
      7 C           3.2890   -2.2380   18.5760 C.ar    1  LIG1        0.0067
      8 C           6.1460   -2.3190   21.8520 C.3     1  LIG1        0.0515
      9 C           8.4580   -4.0300   24.2910 C.ar    1  LIG1       -0.0586
     10 C           7.5420   -3.1670   23.7480 C.ar    1  LIG1       -0.0388
     11 C           9.0360   -4.9650   23.4230 C.ar    1  LIG1       -0.0436
     12 C           7.2110   -3.2340   22.4120 C.ar    1  LIG1        0.0582
     13 N           7.7620   -4.1500   21.5760 N.ar    1  LIG1       -0.2583
     14 C           8.6570   -5.0060   22.0630 C.ar    1  LIG1        0.0279
     15 C           3.8190   -4.5490   19.7500 C.ar    1  LIG1        0.1022
     16 C           5.9250  -12.1070   22.5390 C.ar    1  LIG1        0.0293
     17 C           5.5650   -9.8540   21.5280 C.ar    1  LIG1        0.0498
     18 C           5.0230   -9.2590   20.4490 C.ar    1  LIG1       -0.0103
     19 N           5.9050  -11.2140   21.5020 N.ar    1  LIG1       -0.3058
     20 C           6.3110  -11.8600   20.4050 C.ar    1  LIG1        0.1004
     21 N           6.6000  -13.1510   20.6500 N.ar    1  LIG1       -0.2437
     22 C           6.3520  -13.3410   21.9890 C.ar    1  LIG1        0.0458
     23 C           4.7380   -7.8890   20.5150 C.ar    1  LIG1        0.0917
     24 N           4.6790   -5.9430   21.4200 N.ar    1  LIG1       -0.3375
     25 C           4.1620   -5.8220   20.3210 C.ar    1  LIG1        0.1463
     26 N           4.2050   -6.9530   19.6740 N.ar    1  LIG1       -0.2274
     27 C           5.0030   -7.2570   21.5870 C.ar    1  LIG1        0.0695
     28 C           5.5310   -7.8880   22.6180 C.ar    1  LIG1       -0.0231
     29 C           5.7990   -9.1700   22.6200 C.ar    1  LIG1       -0.0328
     30 C           5.7950   -7.0590   23.8340 C.3     1  LIG1       -0.0376
     31 H           4.2540   -2.9620   22.3510 H       1  LIG1        0.1465
     32 H           2.4150   -3.2510   17.0600 H       1  LIG1        0.1683
     33 H           4.2650   -1.2140   20.1430 H       1  LIG1        0.0651
     34 H           3.0460   -1.2960   18.1070 H       1  LIG1        0.0808
     35 H           6.4530   -1.8750   20.8940 H       1  LIG1        0.0526
     36 H           5.9330   -1.4560   22.5000 H       1  LIG1        0.0526
     37 H           8.7210   -3.9910   25.3380 H       1  LIG1        0.0619
     38 H           7.0730   -2.4240   24.3760 H       1  LIG1        0.0636
     39 H           9.7750   -5.6580   23.7960 H       1  LIG1        0.0633
     40 H           9.1000   -5.7430   21.4090 H       1  LIG1        0.0829
     41 H           5.6670  -11.9110   23.5690 H       1  LIG1        0.0829
     42 H           4.8130   -9.8250   19.5530 H       1  LIG1        0.0660
     43 H           6.3970  -11.3980   19.4320 H       1  LIG1        0.1032
     44 H           6.4630  -14.2700   22.5280 H       1  LIG1        0.0845
     45 H           4.8370   -5.2090   22.0810 H       1  LIG1        0.1674
     46 H           6.2020   -9.6500   23.4990 H       1  LIG1        0.0641
     47 H           5.8600   -7.7120   24.7170 H       1  LIG1        0.0278
     48 H           6.7440   -6.5170   23.7090 H       1  LIG1        0.0278
     49 H           4.9750   -6.3380   23.9710 H       1  LIG1        0.0278
@<TRIPOS>BOND
     1     1     2    2
     2     1     4   ar
     3     1    15   ar
     4     3     5    1
     5     3     8    1
     6     3    31    1
     7     4     7   ar
     8     4    32    1
     9     5     6   ar
    10     5    15   ar
    11     6     7   ar
    12     6    33    1
    13     7    34    1
    14     8    12    1
    15     8    35    1
    16     8    36    1
    17     9    11   ar
    18     9    10   ar
    19     9    37    1
    20    10    12   ar
    21    10    38    1
    22    11    14   ar
    23    11    39    1
    24    12    13   ar
    25    13    14   ar
    26    14    40    1
    27    15    25    1
    28    16    19   ar
    29    16    22   ar
    30    16    41    1
    31    17    18   ar
    32    17    19    1
    33    17    29   ar
    34    18    23   ar
    35    18    42    1
    36    19    20   ar
    37    20    21   ar
    38    20    43    1
    39    21    22   ar
    40    22    44    1
    41    23    26   ar
    42    23    27   ar
    43    24    25   ar
    44    24    27   ar
    45    24    45    1
    46    25    26   ar
    47    27    28   ar
    48    28    29   ar
    49    28    30    1
    50    29    46    1
    51    30    47    1
    52    30    48    1
    53    30    49    1
