@<TRIPOS>MOLECULE
2OJ9_ligand
 13 13 0 0 0
SMALL
GASTEIGER
****
Structure written by MMmdl.
@<TRIPOS>ATOM
      1 C           3.1284   -4.6192   18.4672 C.2     1  UNL1        0.1784
      2 O           2.7799   -5.6606   17.9118 O.2     1  UNL1       -0.2879
      3 C           2.8889   -3.2909   17.9011 C.2     1  UNL1       -0.0186
      4 C           4.2130   -3.4605   20.3834 C.2     1  UNL1       -0.0767
      5 C           3.9883   -2.0498   19.8375 C.3     1  UNL1       -0.0157
      6 C           3.2630   -2.1349   18.4940 C.2     1  UNL1       -0.0767
      7 C           3.8215   -4.5923   19.7560 C.2     1  UNL1       -0.0186
      8 H           2.3810   -3.2313   16.9497 H       1  UNL1        0.0653
      9 H           4.7189   -3.5642   21.3351 H       1  UNL1        0.0576
     10 H           4.9454   -1.5409   19.7133 H       1  UNL1        0.0350
     11 H           3.3969   -1.4660   20.5445 H       1  UNL1        0.0350
     12 H           3.0319   -1.2102   17.9800 H       1  UNL1        0.0576
     13 H           4.0332   -5.5367   20.2356 H       1  UNL1        0.0653
@<TRIPOS>BOND
     1     1     2    2
     2     1     3    1
     3     1     7    1
     4     3     6    2
     5     3     8    1
     6     4     5    1
     7     4     7    2
     8     4     9    1
     9     5     6    1
    10     5    10    1
    11     5    11    1
    12     6    12    1
    13     7    13    1
