BMI_tautomer_reordered
                    3D
 Structure written by MMmdl.
 49 53  0  0  1  0            999 V2000
    3.7070   -4.4470   18.4700 C   0  0  0  0  0  0
    3.7350   -5.4710   17.7890 O   0  0  0  0  0  0
    4.3970   -3.2960   22.0410 N   0  0  0  0  0  0
    3.8680   -3.8910   22.7020 H   0  0  0  0  0  0
    3.3370   -3.2440   17.9510 N   0  0  0  0  0  0
    3.0900   -3.2660   16.9720 H   0  0  0  0  0  0
    4.0290   -3.2710   20.6280 C   0  0  0  0  0  0
    3.6210   -2.0240   19.9960 C   0  0  0  0  0  0
    3.5800   -1.0940   20.5500 H   0  0  0  0  0  0
    3.2970   -2.0840   18.6870 C   0  0  0  0  0  0
    2.9780   -1.2320   18.0980 H   0  0  0  0  0  0
    5.5100   -2.4830   22.5200 C   0  0  0  0  0  0
    5.3310   -2.1950   23.5560 H   0  0  0  0  0  0
    5.5970   -1.5870   21.9050 H   0  0  0  0  0  0
    8.7400   -3.9810   21.2220 C   0  0  0  0  0  0
    9.3580   -3.9650   20.3340 H   0  0  0  0  0  0
    7.5620   -3.2370   21.2790 C   0  0  0  0  0  0
    7.2540   -2.6360   20.4350 H   0  0  0  0  0  0
    9.1080   -4.7460   22.3270 C   0  0  0  0  0  0
   10.0150   -5.3350   22.3170 H   0  0  0  0  0  0
    6.7810   -3.2740   22.4340 C   0  0  0  0  0  0
    7.1280   -4.0140   23.5170 N   0  0  0  0  0  0
    8.2780   -4.7340   23.4470 C   0  0  0  0  0  0
    8.5400   -5.3190   24.3210 H   0  0  0  0  0  0
    4.0630   -4.4080   19.8870 C   0  0  0  0  0  0
    5.0070  -12.3340   20.8790 C   0  0  0  0  0  0
    4.0340  -12.0850   20.4710 H   0  0  0  0  0  0
    5.5850   -9.9550   21.5500 C   0  0  0  0  0  0
    5.1560   -9.2350   20.4310 C   0  0  0  0  0  0
    5.0060   -9.7200   19.4760 H   0  0  0  0  0  0
    5.8350  -11.3870   21.4230 N   0  0  0  0  0  0
    6.9570  -12.0570   21.8300 C   0  0  0  0  0  0
    7.7760  -11.5220   22.3000 H   0  0  0  0  0  0
    6.8850  -13.3440   21.5780 N   0  0  0  0  0  0
    5.7060  -13.5250   21.0010 C   0  0  0  0  0  0
    5.3630  -14.5010   20.6760 H   0  0  0  0  0  0
    4.9310   -7.8680   20.6090 C   0  0  0  0  0  0
    4.8380   -5.8830   21.7700 N   0  0  0  0  0  0
    4.4810   -5.7010   20.5210 C   0  0  0  0  0  0
    4.5170   -6.8540   19.7750 N   0  0  0  0  0  0
    4.2720   -6.8920   18.7910 H   0  0  0  0  0  0
    5.1240   -7.2240   21.8570 C   0  0  0  0  0  0
    5.5550   -7.9740   22.9570 C   0  0  0  0  0  0
    5.7810   -9.3420   22.7870 C   0  0  0  0  0  0
    6.1140   -9.9380   23.6270 H   0  0  0  0  0  0
    5.7670   -7.3180   24.2890 C   0  0  0  0  0  0
    6.1000   -8.0640   25.0120 H   0  0  0  0  0  0
    6.5250   -6.5410   24.1940 H   0  0  0  0  0  0
    4.8320   -6.8750   24.6290 H   0  0  0  0  0  0
  1  2  2  0  0  0
  1  5  1  0  0  0
  1 25  1  0  0  0
  3  7  1  0  0  0
  3 12  1  0  0  0
  3  4  1  0  0  0
  5 10  1  0  0  0
  5  6  1  0  0  0
  7  8  1  0  0  0
  7 25  2  0  0  0
  8 10  2  0  0  0
  8  9  1  0  0  0
 10 11  1  0  0  0
 12 21  1  0  0  0
 12 13  1  0  0  0
 12 14  1  0  0  0
 15 19  2  0  0  0
 15 17  1  0  0  0
 15 16  1  0  0  0
 17 21  2  0  0  0
 17 18  1  0  0  0
 19 23  1  0  0  0
 19 20  1  0  0  0
 21 22  1  0  0  0
 22 23  2  0  0  0
 23 24  1  0  0  0
 25 39  1  0  0  0
 26 31  1  0  0  0
 26 35  2  0  0  0
 26 27  1  0  0  0
 28 29  1  0  0  0
 28 31  1  0  0  0
 28 44  2  0  0  0
 29 37  2  0  0  0
 29 30  1  0  0  0
 31 32  1  0  0  0
 32 34  2  0  0  0
 32 33  1  0  0  0
 34 35  1  0  0  0
 35 36  1  0  0  0
 37 40  1  0  0  0
 37 42  1  0  0  0
 38 39  2  0  0  0
 38 42  1  0  0  0
 39 40  1  0  0  0
 40 41  1  0  0  0
 42 43  2  0  0  0
 43 44  1  0  0  0
 43 46  1  0  0  0
 44 45  1  0  0  0
 46 47  1  0  0  0
 46 48  1  0  0  0
 46 49  1  0  0  0
M  END
> <s_m_entry_id>
1

> <s_m_entry_name>
BMI_tautomer_reordered.1

> <s_pdb_PDB_TITLE>
BMI

> <i_pdb_PDB_Model>
1

> <s_pdb_PDB_format_version>
3.0

> <s_m_Source_Path>
/home/mwieder/Work/Projects/transformato/data/2OJ9-tautomer

> <s_m_Source_File>
BMI_tautomer_reordered.pdb

> <i_m_Source_File_Index>
1

$$$$
