@<TRIPOS>MOLECULE
BMI_tautomer_reordered
 49 53 0 0 0
SMALL
GASTEIGER
****
Structure written by MMmdl.
@<TRIPOS>ATOM
      1 C           3.7070   -4.4470   18.4700 C.ar    1  UNL1        0.2612
      2 O           3.7350   -5.4710   17.7890 O.2     1  UNL1       -0.2671
      3 N           4.3970   -3.2960   22.0410 N.pl3   1  UNL1       -0.3375
      4 H           3.8680   -3.8910   22.7020 H       1  UNL1        0.1465
      5 N           3.3370   -3.2440   17.9510 N.ar    1  UNL1       -0.3284
      6 H           3.0900   -3.2660   16.9720 H       1  UNL1        0.1683
      7 C           4.0290   -3.2710   20.6280 C.ar    1  UNL1        0.0448
      8 C           3.6210   -2.0240   19.9960 C.ar    1  UNL1       -0.0239
      9 H           3.5800   -1.0940   20.5500 H       1  UNL1        0.0651
     10 C           3.2970   -2.0840   18.6870 C.ar    1  UNL1        0.0067
     11 H           2.9780   -1.2320   18.0980 H       1  UNL1        0.0808
     12 C           5.5100   -2.4830   22.5200 C.3     1  UNL1        0.0515
     13 H           5.3310   -2.1950   23.5560 H       1  UNL1        0.0526
     14 H           5.5970   -1.5870   21.9050 H       1  UNL1        0.0526
     15 C           8.7400   -3.9810   21.2220 C.ar    1  UNL1       -0.0586
     16 H           9.3580   -3.9650   20.3340 H       1  UNL1        0.0619
     17 C           7.5620   -3.2370   21.2790 C.ar    1  UNL1       -0.0388
     18 H           7.2540   -2.6360   20.4350 H       1  UNL1        0.0636
     19 C           9.1080   -4.7460   22.3270 C.ar    1  UNL1       -0.0436
     20 H          10.0150   -5.3350   22.3170 H       1  UNL1        0.0633
     21 C           6.7810   -3.2740   22.4340 C.ar    1  UNL1        0.0582
     22 N           7.1280   -4.0140   23.5170 N.ar    1  UNL1       -0.2583
     23 C           8.2780   -4.7340   23.4470 C.ar    1  UNL1        0.0279
     24 H           8.5400   -5.3190   24.3210 H       1  UNL1        0.0829
     25 C           4.0630   -4.4080   19.8870 C.ar    1  UNL1        0.1022
     26 C           5.0070  -12.3340   20.8790 C.ar    1  UNL1        0.0293
     27 H           4.0340  -12.0850   20.4710 H       1  UNL1        0.0829
     28 C           5.5850   -9.9550   21.5500 C.ar    1  UNL1        0.0498
     29 C           5.1560   -9.2350   20.4310 C.ar    1  UNL1       -0.0123
     30 H           5.0060   -9.7200   19.4760 H       1  UNL1        0.0659
     31 N           5.8350  -11.3870   21.4230 N.ar    1  UNL1       -0.3058
     32 C           6.9570  -12.0570   21.8300 C.ar    1  UNL1        0.1004
     33 H           7.7760  -11.5220   22.3000 H       1  UNL1        0.1032
     34 N           6.8850  -13.3440   21.5780 N.ar    1  UNL1       -0.2437
     35 C           5.7060  -13.5250   21.0010 C.ar    1  UNL1        0.0458
     36 H           5.3630  -14.5010   20.6760 H       1  UNL1        0.0845
     37 C           4.9310   -7.8680   20.6090 C.ar    1  UNL1        0.0687
     38 N           4.8380   -5.8830   21.7700 N.ar    1  UNL1       -0.2272
     39 C           4.4810   -5.7010   20.5210 C.ar    1  UNL1        0.1463
     40 N           4.5170   -6.8540   19.7750 N.ar    1  UNL1       -0.3376
     41 H           4.2720   -6.8920   18.7910 H       1  UNL1        0.1674
     42 C           5.1240   -7.2240   21.8570 C.ar    1  UNL1        0.0925
     43 C           5.5550   -7.9740   22.9570 C.ar    1  UNL1       -0.0211
     44 C           5.7810   -9.3420   22.7870 C.ar    1  UNL1       -0.0328
     45 H           6.1140   -9.9380   23.6270 H       1  UNL1        0.0641
     46 C           5.7670   -7.3180   24.2890 C.3     1  UNL1       -0.0376
     47 H           6.1000   -8.0640   25.0120 H       1  UNL1        0.0278
     48 H           6.5250   -6.5410   24.1940 H       1  UNL1        0.0278
     49 H           4.8320   -6.8750   24.6290 H       1  UNL1        0.0278
@<TRIPOS>BOND
     1     1     2    2
     2     1     5   ar
     3     1    25   ar
     4     3     7    1
     5     3    12    1
     6     3     4    1
     7     5    10   ar
     8     5     6    1
     9     7     8   ar
    10     7    25   ar
    11     8    10   ar
    12     8     9    1
    13    10    11    1
    14    12    21    1
    15    12    13    1
    16    12    14    1
    17    15    19   ar
    18    15    17   ar
    19    15    16    1
    20    17    21   ar
    21    17    18    1
    22    19    23   ar
    23    19    20    1
    24    21    22   ar
    25    22    23   ar
    26    23    24    1
    27    25    39    1
    28    26    31   ar
    29    26    35   ar
    30    26    27    1
    31    28    29   ar
    32    28    31    1
    33    28    44   ar
    34    29    37   ar
    35    29    30    1
    36    31    32   ar
    37    32    34   ar
    38    32    33    1
    39    34    35   ar
    40    35    36    1
    41    37    40   ar
    42    37    42   ar
    43    38    39   ar
    44    38    42   ar
    45    39    40   ar
    46    40    41    1
    47    42    43   ar
    48    43    44   ar
    49    43    46    1
    50    44    45    1
    51    46    47    1
    52    46    48    1
    53    46    49    1
