@<TRIPOS>MOLECULE
BMI
 49 53 0 0 0
SMALL
GASTEIGER
****
Structure written by MMmdl.
@<TRIPOS>ATOM
      1 C           3.7074   -4.4466   18.4698 C.ar    1  UNL1        0.2612
      2 O           3.7349   -5.4710   17.7891 O.2     1  UNL1       -0.2671
      3 N           4.3968   -3.2964   22.0407 N.pl3   1  UNL1       -0.3375
      4 N           3.3369   -3.2436   17.9505 N.ar    1  UNL1       -0.3284
      5 C           4.0293   -3.2711   20.6279 C.ar    1  UNL1        0.0448
      6 C           3.6209   -2.0236   19.9956 C.ar    1  UNL1       -0.0239
      7 C           3.2970   -2.0835   18.6873 C.ar    1  UNL1        0.0067
      8 C           5.5101   -2.4825   22.5201 C.3     1  UNL1        0.0515
      9 C           8.7401   -3.9813   21.2216 C.ar    1  UNL1       -0.0586
     10 C           7.5618   -3.2373   21.2792 C.ar    1  UNL1       -0.0388
     11 C           9.1077   -4.7458   22.3268 C.ar    1  UNL1       -0.0436
     12 C           6.7815   -3.2737   22.4336 C.ar    1  UNL1        0.0582
     13 N           7.1280   -4.0140   23.5167 N.ar    1  UNL1       -0.2583
     14 C           8.2781   -4.7339   23.4472 C.ar    1  UNL1        0.0279
     15 C           4.0634   -4.4079   19.8866 C.ar    1  UNL1        0.1022
     16 C           5.0067  -12.3336   20.8790 C.ar    1  UNL1        0.0293
     17 C           5.5846   -9.9545   21.5499 C.ar    1  UNL1        0.0498
     18 C           5.1555   -9.2345   20.4315 C.ar    1  UNL1       -0.0123
     19 N           5.8347  -11.3873   21.4230 N.ar    1  UNL1       -0.3058
     20 C           6.9573  -12.0568   21.8296 C.ar    1  UNL1        0.1004
     21 N           6.8848  -13.3439   21.5779 N.ar    1  UNL1       -0.2437
     22 C           5.7058  -13.5253   21.0009 C.ar    1  UNL1        0.0458
     23 C           4.9313   -7.8676   20.6086 C.ar    1  UNL1        0.0687
     24 N           4.8379   -5.8833   21.7703 N.ar    1  UNL1       -0.2272
     25 C           4.4814   -5.7010   20.5215 C.ar    1  UNL1        0.1463
     26 N           4.5175   -6.8542   19.7752 N.ar    1  UNL1       -0.3376
     27 C           5.1245   -7.2239   21.8565 C.ar    1  UNL1        0.0925
     28 C           5.5548   -7.9742   22.9566 C.ar    1  UNL1       -0.0211
     29 C           5.7812   -9.3420   22.7870 C.ar    1  UNL1       -0.0328
     30 C           5.7673   -7.3185   24.2889 C.3     1  UNL1       -0.0376
     31 H           4.2723   -6.8922   18.7907 H       1  UNL1        0.1674
     32 H           3.8681   -3.8911   22.7023 H       1  UNL1        0.1465
     33 H           3.0903   -3.2665   16.9721 H       1  UNL1        0.1683
     34 H           3.5797   -1.0939   20.5498 H       1  UNL1        0.0651
     35 H           2.9778   -1.2319   18.0980 H       1  UNL1        0.0808
     36 H           5.3306   -2.1955   23.5562 H       1  UNL1        0.0526
     37 H           5.5969   -1.5870   21.9048 H       1  UNL1        0.0526
     38 H           9.3581   -3.9650   20.3340 H       1  UNL1        0.0619
     39 H           7.2543   -2.6357   20.4348 H       1  UNL1        0.0636
     40 H          10.0146   -5.3349   22.3173 H       1  UNL1        0.0633
     41 H           8.5395   -5.3191   24.3208 H       1  UNL1        0.0829
     42 H           4.0343  -12.0853   20.4705 H       1  UNL1        0.0829
     43 H           5.0062   -9.7196   19.4765 H       1  UNL1        0.0659
     44 H           7.7762  -11.5220   22.2997 H       1  UNL1        0.1032
     45 H           5.3625  -14.5011   20.6765 H       1  UNL1        0.0845
     46 H           6.1143   -9.9380   23.6272 H       1  UNL1        0.0641
     47 H           6.0998   -8.0635   25.0117 H       1  UNL1        0.0278
     48 H           6.5250   -6.5406   24.1942 H       1  UNL1        0.0278
     49 H           4.8315   -6.8747   24.6288 H       1  UNL1        0.0278
@<TRIPOS>BOND
     1     1     2    2
     2     1     4   ar
     3     1    15   ar
     4     3     5    1
     5     3     8    1
     6     3    32    1
     7     4     7   ar
     8     4    33    1
     9     5     6   ar
    10     5    15   ar
    11     6     7   ar
    12     6    34    1
    13     7    35    1
    14     8    12    1
    15     8    36    1
    16     8    37    1
    17     9    11   ar
    18     9    10   ar
    19     9    38    1
    20    10    12   ar
    21    10    39    1
    22    11    14   ar
    23    11    40    1
    24    12    13   ar
    25    13    14   ar
    26    14    41    1
    27    15    25    1
    28    16    19   ar
    29    16    22   ar
    30    16    42    1
    31    17    18   ar
    32    17    19    1
    33    17    29   ar
    34    18    23   ar
    35    18    43    1
    36    19    20   ar
    37    20    21   ar
    38    20    44    1
    39    21    22   ar
    40    22    45    1
    41    23    26   ar
    42    23    27   ar
    43    24    25   ar
    44    24    27   ar
    45    25    26   ar
    46    26    31    1
    47    27    28   ar
    48    28    29   ar
    49    28    30    1
    50    29    46    1
    51    30    47    1
    52    30    48    1
    53    30    49    1
