2OJ9_ligand
                    3D
 Structure written by MMmdl.
 13 13  0  0  1  0            999 V2000
    3.1284   -4.6192   18.4672 C   0  0  0  0  0  0
    2.7799   -5.6606   17.9118 O   0  0  0  0  0  0
    2.8889   -3.2909   17.9011 C   0  0  0  0  0  0
    4.2130   -3.4605   20.3834 C   0  0  0  0  0  0
    3.9883   -2.0498   19.8375 C   0  0  0  0  0  0
    3.2630   -2.1349   18.4940 C   0  0  0  0  0  0
    3.8215   -4.5923   19.7560 C   0  0  0  0  0  0
    2.3810   -3.2313   16.9497 H   0  0  0  0  0  0
    4.7189   -3.5642   21.3351 H   0  0  0  0  0  0
    4.9454   -1.5409   19.7133 H   0  0  0  0  0  0
    3.3969   -1.4660   20.5445 H   0  0  0  0  0  0
    3.0319   -1.2102   17.9800 H   0  0  0  0  0  0
    4.0332   -5.5367   20.2356 H   0  0  0  0  0  0
  1  2  2  0  0  0
  1  3  1  0  0  0
  1  7  1  0  0  0
  3  6  2  0  0  0
  3  8  1  0  0  0
  4  5  1  0  0  0
  4  7  2  0  0  0
  4  9  1  0  0  0
  5  6  1  0  0  0
  5 10  1  0  0  0
  5 11  1  0  0  0
  6 12  1  0  0  0
  7 13  1  0  0  0
M  END
> <s_m_entry_id>
2

> <s_m_entry_name>
2oj9.1_ligand

> <s_pdb_PDB_TITLE>
STRUCTURE OF IGF-1R KINASE DOMAIN COMPLEXED WITH A BENZIMIDAZOLE INHIBITOR

> <s_pdb_PDB_ID>
2OJ9

> <r_pdb_PDB_CRYST1_a>
57.271

> <r_pdb_PDB_CRYST1_b>
44.289

> <r_pdb_PDB_CRYST1_c>
65.744

> <r_pdb_PDB_CRYST1_alpha>
90

> <r_pdb_PDB_CRYST1_beta>
99.05

> <r_pdb_PDB_CRYST1_gamma>
90

> <s_pdb_PDB_CRYST1_Space_Group>
P 1 21 1

> <i_pdb_PDB_CRYST1_z>
2

> <s_pdb_PDB_CLASSIFICATION>
TRANSFERASE

> <s_pdb_PDB_DEPOSITION_DATE>
12-JAN-07

> <s_pdb_PDB_format_version>
3.15

> <r_pdb_PDB_R>
0.214

> <r_pdb_PDB_Rfree>
0.276

> <r_pdb_PDB_RESOLUTION>
2

> <s_pdb_PDB_EXPDTA>
X-RAY DIFFRACTION

> <r_pdb_PDB_EXPDTA_TEMPERATURE>
100

> <s_pdb_PDB_REMARK_350_Biomolecule_1_Transform_1_Chains>
A

> <s_pdb_PDB_REMARK_350_Biomolecule_1_Transform_1_Matrix_1>
1.000000 0.000000 0.000000   0.000000;0.000000 1.000000 0.000000   0.000000;0.000000 0.000000 1.000000   0.000000

> <s_m_Source_Path>
/home/mwieder/Work/Software/schrodinger2019-2

> <s_m_Source_File>
2oj9.pdb

> <i_m_Source_File_Index>
1

> <s_m_subgroup_title>
2OJ9_split_by_structure

> <s_m_subgroupid>
2OJ9_split_by_structure

> <b_m_subgroup_collapsed>
0

$$$$
