BMI_tautomer
                    3D
 Structure written by MMmdl.
 49 53  0  0  1  0            999 V2000
    3.5883   -3.8722   18.7275 C   0  0  0  0  0  0
    3.5641   -4.6856   17.8049 O   0  0  0  0  0  0
    4.4393   -3.6968   22.4416 N   0  0  0  0  0  0
    3.2296   -2.5703   18.5528 N   0  0  0  0  0  0
    4.0203   -3.3009   21.1003 C   0  0  0  0  0  0
    3.6208   -1.9261   20.8295 C   0  0  0  0  0  0
    3.2470   -1.6402   19.5651 C   0  0  0  0  0  0
    5.5902   -3.0519   23.0671 C   0  0  0  0  0  0
    8.7302   -4.2120   21.2892 C   0  0  0  0  0  0
    7.5743   -3.4906   21.5872 C   0  0  0  0  0  0
    9.1189   -5.2422   22.1428 C   0  0  0  0  0  0
    6.8368   -3.8129   22.7251 C   0  0  0  0  0  0
    7.2042   -4.8137   23.5646 N   0  0  0  0  0  0
    8.3321   -5.5083   23.2626 C   0  0  0  0  0  0
    3.9976   -4.2072   20.0898 C   0  0  0  0  0  0
    7.2436  -10.8059   23.2538 C   0  0  0  0  0  0
    5.6949   -9.7498   21.5420 C   0  0  0  0  0  0
    5.5102   -8.4693   22.0685 C   0  0  0  0  0  0
    6.1652  -10.8262   22.4089 N   0  0  0  0  0  0
    5.6077  -12.0697   22.5382 C   0  0  0  0  0  0
    6.2599  -12.8179   23.3984 N   0  0  0  0  0  0
    7.2553  -12.0628   23.8401 C   0  0  0  0  0  0
    5.0586   -7.4532   21.2188 C   0  0  0  0  0  0
    4.3843   -6.5478   19.3313 N   0  0  0  0  0  0
    4.4056   -5.6269   20.3508 C   0  0  0  0  0  0
    4.8035   -6.1318   21.4940 N   0  0  0  0  0  0
    4.8026   -7.7486   19.8564 C   0  0  0  0  0  0
    4.9850   -9.0263   19.3229 C   0  0  0  0  0  0
    5.4367  -10.0179   20.1982 C   0  0  0  0  0  0
    4.7114   -9.3297   17.8796 C   0  0  0  0  0  0
    3.9205   -4.4346   22.9492 H   0  0  0  0  0  0
    2.9463   -2.3352   17.6131 H   0  0  0  0  0  0
    3.6241   -1.1712   21.6062 H   0  0  0  0  0  0
    2.9280   -0.6603   19.2298 H   0  0  0  0  0  0
    5.4568   -3.0404   24.1488 H   0  0  0  0  0  0
    5.6770   -2.0290   22.7008 H   0  0  0  0  0  0
    9.3149   -3.9758   20.4105 H   0  0  0  0  0  0
    7.2511   -2.6862   20.9406 H   0  0  0  0  0  0
   10.0093   -5.8224   21.9429 H   0  0  0  0  0  0
    8.6108   -6.3038   23.9435 H   0  0  0  0  0  0
    7.8801   -9.9354   23.3582 H   0  0  0  0  0  0
    5.7109   -8.2641   23.1100 H   0  0  0  0  0  0
    4.7270  -12.3396   21.9644 H   0  0  0  0  0  0
    7.9726  -12.4178   24.5713 H   0  0  0  0  0  0
    4.1017   -6.3257   18.3817 H   0  0  0  0  0  0
    5.5912  -11.0225   19.8251 H   0  0  0  0  0  0
    4.9200  -10.3815   17.6836 H   0  0  0  0  0  0
    3.6657   -9.1189   17.6559 H   0  0  0  0  0  0
    5.3498   -8.7093   17.2506 H   0  0  0  0  0  0
  1  2  2  0  0  0
  1  4  1  0  0  0
  1 15  1  0  0  0
  3  5  1  0  0  0
  3  8  1  0  0  0
  3 31  1  0  0  0
  4  7  1  0  0  0
  4 32  1  0  0  0
  5  6  1  0  0  0
  5 15  2  0  0  0
  6  7  2  0  0  0
  6 33  1  0  0  0
  7 34  1  0  0  0
  8 12  1  0  0  0
  8 35  1  0  0  0
  8 36  1  0  0  0
  9 11  2  0  0  0
  9 10  1  0  0  0
  9 37  1  0  0  0
 10 12  2  0  0  0
 10 38  1  0  0  0
 11 14  1  0  0  0
 11 39  1  0  0  0
 12 13  1  0  0  0
 13 14  2  0  0  0
 14 40  1  0  0  0
 15 25  1  0  0  0
 16 19  1  0  0  0
 16 22  2  0  0  0
 16 41  1  0  0  0
 17 18  1  0  0  0
 17 19  1  0  0  0
 17 29  2  0  0  0
 18 23  2  0  0  0
 18 42  1  0  0  0
 19 20  1  0  0  0
 20 21  2  0  0  0
 20 43  1  0  0  0
 21 22  1  0  0  0
 22 44  1  0  0  0
 23 26  1  0  0  0
 23 27  1  0  0  0
 24 25  1  0  0  0
 24 27  1  0  0  0
 24 45  1  0  0  0
 25 26  2  0  0  0
 27 28  2  0  0  0
 28 29  1  0  0  0
 28 30  1  0  0  0
 29 46  1  0  0  0
 30 47  1  0  0  0
 30 48  1  0  0  0
 30 49  1  0  0  0
M  END
> <s_m_entry_id>
1

> <s_m_entry_name>
BMI_tautomer.1

> <s_pdb_PDB_TITLE>
BMI

> <i_pdb_PDB_Model>
1

> <s_pdb_PDB_format_version>
3.0

> <s_m_Source_Path>
/home/mwieder/Work/Projects/transformato/data/2OJ9-original

> <s_m_Source_File>
BMI_tautomer.pdb

> <i_m_Source_File_Index>
1

$$$$
