@<TRIPOS>MOLECULE
BMI_tautomer
 49 53 0 0 0
SMALL
GASTEIGER
****
Structure written by MMmdl.
@<TRIPOS>ATOM
      1 C           3.5883   -3.8722   18.7275 C.ar    1  UNL1        0.2612
      2 O           3.5641   -4.6856   17.8049 O.2     1  UNL1       -0.2671
      3 N           4.4393   -3.6968   22.4416 N.pl3   1  UNL1       -0.3375
      4 N           3.2296   -2.5703   18.5528 N.ar    1  UNL1       -0.3284
      5 C           4.0203   -3.3009   21.1003 C.ar    1  UNL1        0.0448
      6 C           3.6208   -1.9261   20.8295 C.ar    1  UNL1       -0.0239
      7 C           3.2470   -1.6402   19.5651 C.ar    1  UNL1        0.0067
      8 C           5.5902   -3.0519   23.0671 C.3     1  UNL1        0.0515
      9 C           8.7302   -4.2120   21.2892 C.ar    1  UNL1       -0.0586
     10 C           7.5743   -3.4906   21.5872 C.ar    1  UNL1       -0.0388
     11 C           9.1189   -5.2422   22.1428 C.ar    1  UNL1       -0.0436
     12 C           6.8368   -3.8129   22.7251 C.ar    1  UNL1        0.0582
     13 N           7.2042   -4.8137   23.5646 N.ar    1  UNL1       -0.2583
     14 C           8.3321   -5.5083   23.2626 C.ar    1  UNL1        0.0279
     15 C           3.9976   -4.2072   20.0898 C.ar    1  UNL1        0.1022
     16 C           7.2436  -10.8059   23.2538 C.ar    1  UNL1        0.0293
     17 C           5.6949   -9.7498   21.5420 C.ar    1  UNL1        0.0498
     18 C           5.5102   -8.4693   22.0685 C.ar    1  UNL1       -0.0103
     19 N           6.1652  -10.8262   22.4089 N.ar    1  UNL1       -0.3058
     20 C           5.6077  -12.0697   22.5382 C.ar    1  UNL1        0.1004
     21 N           6.2599  -12.8179   23.3984 N.ar    1  UNL1       -0.2437
     22 C           7.2553  -12.0628   23.8401 C.ar    1  UNL1        0.0458
     23 C           5.0586   -7.4532   21.2188 C.ar    1  UNL1        0.0917
     24 N           4.3843   -6.5478   19.3313 N.ar    1  UNL1       -0.3375
     25 C           4.4056   -5.6269   20.3508 C.ar    1  UNL1        0.1463
     26 N           4.8035   -6.1318   21.4940 N.ar    1  UNL1       -0.2274
     27 C           4.8026   -7.7486   19.8564 C.ar    1  UNL1        0.0695
     28 C           4.9850   -9.0263   19.3229 C.ar    1  UNL1       -0.0231
     29 C           5.4367  -10.0179   20.1982 C.ar    1  UNL1       -0.0328
     30 C           4.7114   -9.3297   17.8796 C.3     1  UNL1       -0.0376
     31 H           3.9205   -4.4346   22.9492 H       1  UNL1        0.1465
     32 H           2.9463   -2.3352   17.6131 H       1  UNL1        0.1683
     33 H           3.6241   -1.1712   21.6062 H       1  UNL1        0.0651
     34 H           2.9280   -0.6603   19.2298 H       1  UNL1        0.0808
     35 H           5.4568   -3.0404   24.1488 H       1  UNL1        0.0526
     36 H           5.6770   -2.0290   22.7008 H       1  UNL1        0.0526
     37 H           9.3149   -3.9758   20.4105 H       1  UNL1        0.0619
     38 H           7.2511   -2.6862   20.9406 H       1  UNL1        0.0636
     39 H          10.0093   -5.8224   21.9429 H       1  UNL1        0.0633
     40 H           8.6108   -6.3038   23.9435 H       1  UNL1        0.0829
     41 H           7.8801   -9.9354   23.3582 H       1  UNL1        0.0829
     42 H           5.7109   -8.2641   23.1100 H       1  UNL1        0.0660
     43 H           4.7270  -12.3396   21.9644 H       1  UNL1        0.1032
     44 H           7.9726  -12.4178   24.5713 H       1  UNL1        0.0845
     45 H           4.1017   -6.3257   18.3817 H       1  UNL1        0.1674
     46 H           5.5912  -11.0225   19.8251 H       1  UNL1        0.0641
     47 H           4.9200  -10.3815   17.6836 H       1  UNL1        0.0278
     48 H           3.6657   -9.1189   17.6559 H       1  UNL1        0.0278
     49 H           5.3498   -8.7093   17.2506 H       1  UNL1        0.0278
@<TRIPOS>BOND
     1     1     2    2
     2     1     4   ar
     3     1    15   ar
     4     3     5    1
     5     3     8    1
     6     3    31    1
     7     4     7   ar
     8     4    32    1
     9     5     6   ar
    10     5    15   ar
    11     6     7   ar
    12     6    33    1
    13     7    34    1
    14     8    12    1
    15     8    35    1
    16     8    36    1
    17     9    11   ar
    18     9    10   ar
    19     9    37    1
    20    10    12   ar
    21    10    38    1
    22    11    14   ar
    23    11    39    1
    24    12    13   ar
    25    13    14   ar
    26    14    40    1
    27    15    25    1
    28    16    19   ar
    29    16    22   ar
    30    16    41    1
    31    17    18   ar
    32    17    19    1
    33    17    29   ar
    34    18    23   ar
    35    18    42    1
    36    19    20   ar
    37    20    21   ar
    38    20    43    1
    39    21    22   ar
    40    22    44    1
    41    23    26   ar
    42    23    27   ar
    43    24    25   ar
    44    24    27   ar
    45    24    45    1
    46    25    26   ar
    47    27    28   ar
    48    28    29   ar
    49    28    30    1
    50    29    46    1
    51    30    47    1
    52    30    48    1
    53    30    49    1
